Version 4
SHEET 1 880 808
WIRE -624 -16 -1120 -16
WIRE -48 -16 -624 -16
WIRE 128 -16 -48 -16
WIRE 256 -16 128 -16
WIRE 544 -16 352 -16
WIRE -624 32 -624 -16
WIRE -48 32 -48 -16
WIRE 128 32 128 -16
WIRE 128 144 128 112
WIRE 272 144 272 32
WIRE 272 144 128 144
WIRE 272 176 272 144
WIRE -1120 208 -1120 -16
WIRE 544 208 544 -16
WIRE -48 256 -48 112
WIRE -48 256 -368 256
WIRE 32 256 -48 256
WIRE 176 256 112 256
WIRE 224 256 176 256
WIRE -368 272 -368 256
WIRE -624 288 -624 112
WIRE -416 288 -624 288
WIRE -48 336 -48 256
WIRE 176 336 176 256
WIRE 272 368 272 272
WIRE -368 416 -368 368
WIRE -624 432 -624 288
WIRE -1120 544 -1120 288
WIRE -624 544 -624 512
WIRE -368 544 -368 496
WIRE -208 544 -208 400
WIRE -48 544 -48 400
WIRE 176 544 176 416
WIRE 272 544 272 448
WIRE 544 544 544 288
FLAG 272 544 0
FLAG 176 544 0
FLAG -48 544 0
FLAG -208 544 0
FLAG -624 544 0
FLAG 544 544 0
FLAG -1120 544 0
FLAG -368 544 0
SYMBOL res 112 16 R0
SYMATTR InstName R1
SYMATTR Value 100k
SYMBOL res -64 16 R0
SYMATTR InstName R2
SYMATTR Value 100k
SYMBOL cap -64 336 R0
SYMATTR InstName C1
SYMATTR Value 20µF
SYMATTR SpiceLine Rser=1
SYMBOL res 128 240 R90
WINDOW 0 0 56 VBottom 2
WINDOW 3 32 56 VTop 2
SYMATTR InstName R3
SYMATTR Value 100k
SYMBOL res 192 432 R180
WINDOW 0 36 76 Left 2
WINDOW 3 36 40 Left 2
SYMATTR InstName R4
SYMATTR Value 100k
SYMBOL res -640 416 R0
SYMATTR InstName R6
SYMATTR Value 100k
SYMBOL res -640 16 R0
SYMATTR InstName R7
SYMATTR Value 10k
SYMBOL res 528 192 R0
SYMATTR InstName RL
SYMATTR Value 1k
SYMBOL voltage -1120 192 R0
WINDOW 123 0 0 Left 0
WINDOW 39 0 0 Left 0
SYMATTR InstName V1
SYMATTR Value PULSE(0 5 10 1u 1u 5 10 5)
SYMBOL Misc\\SCR -224 336 R0
SYMATTR InstName U1
SYMATTR Value MCR100-003
SYMBOL nmos 224 176 R0
SYMATTR InstName M1
SYMATTR Value AO6408
SYMBOL pmos 352 32 M270
SYMATTR InstName M2
SYMATTR Value AO6407
SYMBOL pmos -416 368 M180
SYMATTR InstName M3
SYMATTR Value AO6407
SYMBOL res 256 352 R0
SYMATTR InstName R9
SYMATTR Value 10
SYMBOL res -384 400 R0
SYMATTR InstName R5
SYMATTR Value 10k
TEXT -1154 568 Left 2 !.tran 100s
TEXT -912 664 Left 2 !.lib MCR100-0003.sub
TEXT -896 616 Left 2 !.inc AO3400.mod
TEXT -864 744 Left 2 !.inc AO3401A.mod
